<net xmlns:xsi="http://www.w3.org/2001/XMLSchema-instance" version="1.16" junctionCornerDetail="5" limitTurnSpeed="5.50" xsi:noNamespaceSchemaLocation="http://sumo.dlr.de/xsd/net_file.xsd">

    <location netOffset="-235606.05,-3983110.14" convBoundary="0.00,0.00,658.29,400.96" origBoundary="-83.931554,35.956753,-83.924344,35.960386" projParameter="+proj=utm +zone=17 +ellps=WGS84 +datum=WGS84 +units=m +no_defs" />

    <type id="highway.residential" priority="3" numLanes="1" speed="13.89" disallow="tram rail_urban rail rail_electric rail_fast ship" oneway="0" />
    <type id="highway.secondary" priority="11" numLanes="1" speed="27.78" disallow="tram rail_urban rail rail_electric rail_fast ship" oneway="0" />
    <type id="highway.tertiary" priority="10" numLanes="1" speed="22.22" disallow="tram rail_urban rail rail_electric rail_fast ship" oneway="0" />
    <type id="highway.unclassified" priority="4" numLanes="1" speed="13.89" disallow="tram rail_urban rail rail_electric rail_fast ship" oneway="0" />

    <edge id=":1983296322_0" function="internal">
        <lane id=":1983296322_0_0" index="0" disallow="tram rail_urban rail rail_electric rail_fast ship" speed="6.46" length="9.03" shape="291.08,111.14 288.69,110.48 286.68,110.76 285.04,111.97 283.78,114.11" />
    </edge>
    <edge id=":1983296322_1" function="internal">
        <lane id=":1983296322_1_0" index="0" disallow="tram rail_urban rail rail_electric rail_fast ship" speed="7.34" length="11.76" shape="291.08,111.14 287.68,109.28 285.56,107.22 284.73,104.95 285.19,102.49" />
    </edge>
    <edge id=":1983296322_2" function="internal">
        <lane id=":1983296322_2_0" index="0" disallow="tram rail_urban rail rail_electric rail_fast ship" speed="13.89" length="11.23" shape="288.13,103.75 283.78,114.11" />
    </edge>
    <edge id=":1983296322_3" function="internal">
        <lane id=":1983296322_3_0" index="0" disallow="tram rail_urban rail rail_electric rail_fast ship" speed="3.65" length="1.44" shape="288.13,103.75 286.92,104.54" />
    </edge>
    <edge id=":1983296322_6" function="internal">
        <lane id=":1983296322_6_0" index="0" disallow="tram rail_urban rail rail_electric rail_fast ship" speed="3.65" length="3.23" shape="286.92,104.54 286.03,104.59 285.45,103.91 285.19,102.49" />
    </edge>
    <edge id=":1983296322_4" function="internal">
        <lane id=":1983296322_4_0" index="0" disallow="tram rail_urban rail rail_electric rail_fast ship" speed="13.89" length="11.28" shape="280.82,112.89 285.19,102.49" />
    </edge>
    <edge id=":1983296322_5" function="internal">
        <lane id=":1983296322_5_0" index="0" disallow="tram rail_urban rail rail_electric rail_fast ship" speed="3.65" length="1.44" shape="280.82,112.89 282.02,112.09" />
    </edge>
    <edge id=":1983296322_7" function="internal">
        <lane id=":1983296322_7_0" index="0" disallow="tram rail_urban rail rail_electric rail_fast ship" speed="3.65" length="3.23" shape="282.02,112.09 282.91,112.02 283.50,112.69 283.78,114.11" />
    </edge>
    <edge id=":202799427_0" function="internal">
        <lane id=":202799427_0_0" index="0" disallow="tram rail_urban rail rail_electric rail_fast ship" speed="7.29" length="9.97" shape="653.26,273.13 650.83,272.94 648.71,273.64 646.90,275.23 645.41,277.71" />
    </edge>
    <edge id=":202799427_1" function="internal">
        <lane id=":202799427_1_0" index="0" disallow="tram rail_urban rail rail_electric rail_fast ship" speed="27.78" length="14.44" shape="653.26,273.13 639.25,269.51" />
        <lane id=":202799427_1_1" index="1" disallow="tram rail_urban rail rail_electric rail_fast ship" speed="27.78" length="14.44" shape="654.03,270.03 640.07,266.41" />
    </edge>
    <edge id=":202799427_3" function="internal">
        <lane id=":202799427_3_0" index="0" disallow="tram rail_urban rail rail_electric rail_fast ship" speed="3.65" length="1.44" shape="654.03,270.03 653.06,268.96" />
    </edge>
    <edge id=":202799427_11" function="internal">
        <lane id=":202799427_11_0" index="0" disallow="tram rail_urban rail rail_electric rail_fast ship" speed="3.65" length="3.23" shape="653.06,268.96 652.86,268.09 653.44,267.41 654.80,266.92" />
    </edge>
    <edge id=":202799427_4" function="internal">
        <lane id=":202799427_4_0" index="0" disallow="tram rail_urban rail rail_electric rail_fast ship" speed="27.78" length="14.34" shape="641.72,260.23 655.57,263.82" />
        <lane id=":202799427_4_1" index="1" disallow="tram rail_urban rail rail_electric rail_fast ship" speed="27.78" length="14.34" shape="640.90,263.32 654.80,266.92" />
    </edge>
    <edge id=":202799427_6" function="internal">
        <lane id=":202799427_6_0" index="0" disallow="tram rail_urban rail rail_electric rail_fast ship" speed="8.42" length="3.82" shape="640.90,263.32 644.35,264.96" />
    </edge>
    <edge id=":202799427_7" function="internal">
        <lane id=":202799427_7_0" index="0" disallow="tram rail_urban rail rail_electric rail_fast ship" speed="3.65" length="1.44" shape="640.90,263.32 641.85,264.40" />
    </edge>
    <edge id=":202799427_12" function="internal">
        <lane id=":202799427_12_0" index="0" disallow="tram rail_urban rail rail_electric rail_fast ship" speed="8.42" length="14.02" shape="644.35,264.96 644.88,265.21 646.96,268.24 647.14,272.40 645.41,277.71" />
    </edge>
    <edge id=":202799427_13" function="internal">
        <lane id=":202799427_13_0" index="0" disallow="tram rail_urban rail rail_electric rail_fast ship" speed="3.65" length="3.23" shape="641.85,264.40 642.03,265.28 641.44,265.95 640.07,266.41" />
    </edge>
    <edge id=":202799427_8" function="internal">
        <lane id=":202799427_8_0" index="0" disallow="tram rail_urban rail rail_electric rail_fast ship" speed="6.18" length="9.05" shape="642.50,276.39 643.21,273.95 642.91,271.98 641.59,270.51 639.25,269.51" />
    </edge>
    <edge id=":202799427_9" function="internal">
        <lane id=":202799427_9_0" index="0" disallow="tram rail_urban rail rail_electric rail_fast ship" speed="9.32" length="16.87" shape="642.50,276.39 645.19,271.58 648.14,268.40 651.34,266.85 654.80,266.92" />
    </edge>
    <edge id=":202799427_10" function="internal">
        <lane id=":202799427_10_0" index="0" disallow="tram rail_urban rail rail_electric rail_fast ship" speed="3.65" length="1.44" shape="642.50,276.39 643.73,275.63" />
    </edge>
    <edge id=":202799427_14" function="internal">
        <lane id=":202799427_14_0" index="0" disallow="tram rail_urban rail rail_electric rail_fast ship" speed="3.65" length="3.23" shape="643.73,275.63 644.62,275.59 645.18,276.29 645.41,277.71" />
    </edge>
    <edge id=":202880757_0" function="internal">
        <lane id=":202880757_0_0" index="0" disallow="tram rail_urban rail rail_electric rail_fast ship" speed="6.48" length="9.03" shape="276.87,149.42 274.45,148.87 272.45,149.22 270.85,150.49 269.67,152.66" />
    </edge>
    <edge id=":202880757_1" function="internal">
        <lane id=":202880757_1_0" index="0" disallow="tram rail_urban rail rail_electric rail_fast ship" speed="27.78" length="15.40" shape="276.87,149.42 262.57,143.53" />
        <lane id=":202880757_1_1" index="1" disallow="tram rail_urban rail rail_electric rail_fast ship" speed="27.78" length="15.40" shape="278.02,146.44 263.85,140.60" />
    </edge>
    <edge id=":202880757_3" function="internal">
        <lane id=":202880757_3_0" index="0" disallow="tram rail_urban rail rail_electric rail_fast ship" speed="9.07" length="3.86" shape="278.02,146.44 274.76,144.38" />
    </edge>
    <edge id=":202880757_4" function="internal">
        <lane id=":202880757_4_0" index="0" disallow="tram rail_urban rail rail_electric rail_fast ship" speed="3.65" length="1.44" shape="278.02,146.44 277.19,145.26" />
    </edge>
    <edge id=":202880757_18" function="internal">
        <lane id=":202880757_18_0" index="0" disallow="tram rail_urban rail rail_electric rail_fast ship" speed="9.07" length="13.57" shape="274.76,144.38 274.67,144.32 272.79,141.13 272.36,136.85 273.39,131.49" />
    </edge>
    <edge id=":202880757_19" function="internal">
        <lane id=":202880757_19_0" index="0" disallow="tram rail_urban rail rail_electric rail_fast ship" speed="3.65" length="3.23" shape="277.19,145.26 277.11,144.37 277.77,143.77 279.18,143.45" />
    </edge>
    <edge id=":202880757_5" function="internal">
        <lane id=":202880757_5_0" index="0" disallow="tram rail_urban rail rail_electric rail_fast ship" speed="7.01" length="10.03" shape="276.46,132.41 276.04,135.12 276.54,137.37 277.97,139.15 280.33,140.47" />
    </edge>
    <edge id=":202880757_6" function="internal">
        <lane id=":202880757_6_0" index="0" disallow="tram rail_urban rail rail_electric rail_fast ship" speed="13.89" length="21.36" shape="276.46,132.41 269.67,152.66" />
    </edge>
    <edge id=":202880757_7" function="internal">
        <lane id=":202880757_7_0" index="0" disallow="tram rail_urban rail rail_electric rail_fast ship" speed="8.48" length="6.03" shape="276.46,132.41 274.31,137.46 273.95,137.86" />
    </edge>
    <edge id=":202880757_8" function="internal">
        <lane id=":202880757_8_0" index="0" disallow="tram rail_urban rail rail_electric rail_fast ship" speed="3.65" length="1.44" shape="276.46,132.41 275.35,133.33" />
    </edge>
    <edge id=":202880757_20" function="internal">
        <lane id=":202880757_20_0" index="0" disallow="tram rail_urban rail rail_electric rail_fast ship" speed="8.48" length="11.52" shape="273.95,137.86 271.50,140.51 268.01,141.56 263.85,140.60" />
    </edge>
    <edge id=":202880757_21" function="internal">
        <lane id=":202880757_21_0" index="0" disallow="tram rail_urban rail rail_electric rail_fast ship" speed="3.65" length="3.23" shape="275.35,133.33 274.47,133.48 273.81,132.87 273.39,131.49" />
    </edge>
    <edge id=":202880757_9" function="internal">
        <lane id=":202880757_9_0" index="0" disallow="tram rail_urban rail rail_electric rail_fast ship" speed="6.26" length="9.04" shape="266.41,134.73 268.84,135.40 270.81,135.08 272.33,133.78 273.39,131.49" />
    </edge>
    <edge id=":202880757_10" function="internal">
        <lane id=":202880757_10_0" index="0" disallow="tram rail_urban rail rail_electric rail_fast ship" speed="27.78" length="15.12" shape="266.41,134.73 280.33,140.47" />
        <lane id=":202880757_10_1" index="1" disallow="tram rail_urban rail rail_electric rail_fast ship" speed="27.78" length="15.12" shape="265.13,137.67 279.18,143.45" />
    </edge>
    <edge id=":202880757_12" function="internal">
        <lane id=":202880757_12_0" index="0" disallow="tram rail_urban rail rail_electric rail_fast ship" speed="9.03" length="3.67" shape="265.13,137.67 268.19,139.70" />
    </edge>
    <edge id=":202880757_13" function="internal">
        <lane id=":202880757_13_0" index="0" disallow="tram rail_urban rail rail_electric rail_fast ship" speed="3.65" length="1.44" shape="265.13,137.67 265.91,138.88" />
    </edge>
    <edge id=":202880757_22" function="internal">
        <lane id=":202880757_22_0" index="0" disallow="tram rail_urban rail rail_electric rail_fast ship" speed="9.03" length="13.92" shape="268.19,139.70 268.67,140.03 270.61,143.31 270.94,147.52 269.67,152.66" />
    </edge>
    <edge id=":202880757_23" function="internal">
        <lane id=":202880757_23_0" index="0" disallow="tram rail_urban rail rail_electric rail_fast ship" speed="3.65" length="3.23" shape="265.91,138.88 265.96,139.77 265.27,140.35 263.85,140.60" />
    </edge>
    <edge id=":202880757_14" function="internal">
        <lane id=":202880757_14_0" index="0" disallow="tram rail_urban rail rail_electric rail_fast ship" speed="6.99" length="10.12" shape="266.67,151.54 267.16,149.03 266.64,146.86 265.11,145.03 262.57,143.53" />
    </edge>
    <edge id=":202880757_15" function="internal">
        <lane id=":202880757_15_0" index="0" disallow="tram rail_urban rail rail_electric rail_fast ship" speed="13.89" length="21.15" shape="266.67,151.54 273.39,131.49" />
    </edge>
    <edge id=":202880757_16" function="internal">
        <lane id=":202880757_16_0" index="0" disallow="tram rail_urban rail rail_electric rail_fast ship" speed="8.65" length="5.15" shape="266.67,151.54 268.96,146.92" />
    </edge>
    <edge id=":202880757_17" function="internal">
        <lane id=":202880757_17_0" index="0" disallow="tram rail_urban rail rail_electric rail_fast ship" speed="3.65" length="1.44" shape="266.67,151.54 267.84,150.70" />
    </edge>
    <edge id=":202880757_24" function="internal">
        <lane id=":202880757_24_0" index="0" disallow="tram rail_urban rail rail_electric rail_fast ship" speed="8.65" length="11.76" shape="268.96,146.92 269.02,146.80 271.89,143.87 275.28,142.75 279.18,143.45" />
    </edge>
    <edge id=":202880757_25" function="internal">
        <lane id=":202880757_25_0" index="0" disallow="tram rail_urban rail rail_electric rail_fast ship" speed="3.65" length="3.23" shape="267.84,150.70 268.73,150.60 269.34,151.26 269.67,152.66" />
    </edge>
    <edge id=":202925704_0" function="internal">
        <lane id=":202925704_0_0" index="0" disallow="tram rail_urban rail rail_electric rail_fast ship" speed="27.78" length="11.00" shape="467.23,221.47 456.59,218.31" />
        <lane id=":202925704_0_1" index="1" disallow="tram rail_urban rail rail_electric rail_fast ship" speed="27.78" length="11.00" shape="468.03,218.37 457.58,215.27" />
    </edge>
    <edge id=":202925704_2" function="internal">
        <lane id=":202925704_2_0" index="0" disallow="tram rail_urban rail rail_electric rail_fast ship" speed="3.65" length="1.44" shape="468.03,218.37 467.06,217.30" />
    </edge>
    <edge id=":202925704_8" function="internal">
        <lane id=":202925704_8_0" index="0" disallow="tram rail_urban rail rail_electric rail_fast ship" speed="3.65" length="3.23" shape="467.06,217.30 466.88,216.42 467.46,215.75 468.82,215.27" />
    </edge>
    <edge id=":202925704_3" function="internal">
        <lane id=":202925704_3_0" index="0" disallow="tram rail_urban rail rail_electric rail_fast ship" speed="27.78" length="10.58" shape="459.58,209.19 469.62,212.17" />
        <lane id=":202925704_3_1" index="1" disallow="tram rail_urban rail rail_electric rail_fast ship" speed="27.78" length="10.58" shape="458.58,212.23 468.82,215.27" />
    </edge>
    <edge id=":202925704_5" function="internal">
        <lane id=":202925704_5_0" index="0" disallow="tram rail_urban rail rail_electric rail_fast ship" speed="3.65" length="1.44" shape="458.58,212.23 459.47,213.37" />
    </edge>
    <edge id=":202925704_9" function="internal">
        <lane id=":202925704_9_0" index="0" disallow="tram rail_urban rail rail_electric rail_fast ship" speed="3.65" length="3.23" shape="459.47,213.37 459.60,214.25 458.97,214.89 457.58,215.27" />
    </edge>
    <edge id=":202925704_6" function="internal">
        <lane id=":202925704_6_0" index="0" disallow="tram rail_urban rail rail_electric rail_fast ship" speed="6.29" length="9.07" shape="459.77,225.37 460.47,222.97 460.17,220.99 458.87,219.44 456.59,218.31" />
    </edge>
    <edge id=":202925704_7" function="internal">
        <lane id=":202925704_7_0" index="0" disallow="tram rail_urban rail rail_electric rail_fast ship" speed="8.60" length="14.31" shape="459.77,225.37 462.24,220.57 464.57,217.28 466.76,215.52 468.82,215.27" />
    </edge>
    <edge id=":202966807_0" function="internal">
        <lane id=":202966807_0_0" index="0" disallow="tram rail_urban rail rail_electric rail_fast ship" speed="7.96" length="3.38" shape="516.57,371.05 513.70,369.25" />
    </edge>
    <edge id=":202966807_1" function="internal">
        <lane id=":202966807_1_0" index="0" disallow="tram rail_urban rail rail_electric rail_fast ship" speed="3.65" length="1.44" shape="516.57,371.05 515.79,369.83" />
    </edge>
    <edge id=":202966807_6" function="internal">
        <lane id=":202966807_6_0" index="0" disallow="tram rail_urban rail rail_electric rail_fast ship" speed="7.96" length="10.90" shape="513.70,369.25 513.24,368.97 511.40,366.33 511.06,363.13 512.21,359.38" />
    </edge>
    <edge id=":202966807_7" function="internal">
        <lane id=":202966807_7_0" index="0" disallow="tram rail_urban rail rail_electric rail_fast ship" speed="3.65" length="3.23" shape="515.79,369.83 515.75,368.94 516.44,368.37 517.86,368.12" />
    </edge>
    <edge id=":202966807_2" function="internal">
        <lane id=":202966807_2_0" index="0" disallow="tram rail_urban rail rail_electric rail_fast ship" speed="6.46" length="9.03" shape="515.10,360.74 514.38,363.11 514.60,365.14 515.76,366.80 517.86,368.12" />
    </edge>
    <edge id=":202966807_3" function="internal">
        <lane id=":202966807_3_0" index="0" disallow="tram rail_urban rail rail_electric rail_fast ship" speed="3.65" length="4.67" shape="515.10,360.74 513.87,361.48 512.97,361.51 512.42,360.80 512.21,359.38" />
    </edge>
    <edge id=":202966807_4" function="internal">
        <lane id=":202966807_4_0" index="0" disallow="tram rail_urban rail rail_electric rail_fast ship" speed="7.06" length="10.52" shape="503.99,363.84 506.42,364.38 508.59,363.81 510.53,362.15 512.21,359.38" />
    </edge>
    <edge id=":202966807_5" function="internal">
        <lane id=":202966807_5_0" index="0" disallow="tram rail_urban rail rail_electric rail_fast ship" speed="13.89" length="14.53" shape="503.99,363.84 507.46,365.05 510.94,365.96 514.41,366.87 517.86,368.12" />
    </edge>
    <edge id=":202966811_0" function="internal">
        <lane id=":202966811_0_0" index="0" disallow="tram rail_urban rail rail_electric rail_fast ship" speed="3.65" length="4.67" shape="537.66,305.16 538.90,304.42 539.79,304.40 540.35,305.10 540.56,306.53" />
    </edge>
    <edge id=":203026549_0" function="internal">
        <lane id=":203026549_0_0" index="0" disallow="tram rail_urban rail rail_electric rail_fast ship" speed="6.08" length="7.71" shape="590.89,398.72 589.76,400.50 588.33,401.50 586.60,401.71 584.57,401.14" />
    </edge>
    <edge id=":203026549_1" function="internal">
        <lane id=":203026549_1_0" index="0" disallow="tram rail_urban rail rail_electric rail_fast ship" speed="3.90" length="2.57" shape="585.86,398.21 586.54,398.40 587.12,398.33 587.59,398.00 587.97,397.41" />
    </edge>
    <edge id=":203028626_0" function="internal">
        <lane id=":203028626_0_0" index="0" disallow="tram rail_urban rail rail_electric rail_fast ship" speed="6.61" length="8.77" shape="391.93,164.84 389.66,164.41 387.73,164.82 386.12,166.06 384.84,168.14" />
    </edge>
    <edge id=":203028626_1" function="internal">
        <lane id=":203028626_1_0" index="0" disallow="tram rail_urban rail rail_electric rail_fast ship" speed="13.89" length="10.66" shape="391.93,164.84 389.01,163.85 386.89,163.04 384.93,161.94 382.49,160.09" />
    </edge>
    <edge id=":203028641_0" function="internal">
        <lane id=":203028641_0_0" index="0" disallow="tram rail_urban rail rail_electric rail_fast ship" speed="13.89" length="8.62" shape="376.32,154.99 374.37,153.33 373.10,152.13 371.90,150.84 370.18,148.95" />
    </edge>
    <edge id=":203028641_1" function="internal">
        <lane id=":203028641_1_0" index="0" disallow="tram rail_urban rail rail_electric rail_fast ship" speed="7.10" length="7.79" shape="370.59,156.25 371.37,154.10 371.57,152.17 371.17,150.45 370.18,148.95" />
    </edge>
    <edge id=":203028718_0" function="internal">
        <lane id=":203028718_0_0" index="0" disallow="tram rail_urban rail rail_electric rail_fast ship" speed="11.47" length="6.32" shape="366.67,144.04 365.53,142.61 364.51,141.84 363.30,141.31 361.56,140.58" />
    </edge>
    <edge id=":203028718_1" function="internal">
        <lane id=":203028718_1_0" index="0" disallow="tram rail_urban rail rail_electric rail_fast ship" speed="13.25" length="6.33" shape="366.67,144.04 365.72,142.46 365.32,141.24 365.17,139.93 364.98,138.06" />
    </edge>
    <edge id=":203070550_0" function="internal">
        <lane id=":203070550_0_0" index="0" disallow="tram rail_urban rail rail_electric rail_fast ship" speed="6.48" length="9.03" shape="75.05,172.26 74.40,174.65 74.69,176.67 75.89,178.31 78.02,179.58" />
    </edge>
    <edge id=":203070550_1" function="internal">
        <lane id=":203070550_1_0" index="0" disallow="tram rail_urban rail rail_electric rail_fast ship" speed="3.65" length="4.67" shape="75.05,172.26 73.84,173.05 72.95,173.10 72.37,172.42 72.11,171.00" />
    </edge>
    <edge id=":203072199_0" function="internal">
        <lane id=":203072199_0_0" index="0" disallow="tram rail_urban rail rail_electric rail_fast ship" speed="6.52" length="9.02" shape="409.24,323.58 411.61,324.24 413.63,323.98 415.30,322.80 416.62,320.70" />
    </edge>
    <edge id=":203072199_1" function="internal">
        <lane id=":203072199_1_0" index="0" disallow="tram rail_urban rail rail_electric rail_fast ship" speed="13.89" length="11.31" shape="409.24,323.58 419.69,327.91" />
    </edge>
    <edge id=":203072202_0" function="internal">
        <lane id=":203072202_0_0" index="0" disallow="tram rail_urban rail rail_electric rail_fast ship" speed="6.34" length="8.82" shape="257.25,248.45 256.52,250.63 256.74,252.54 257.93,254.19 260.08,255.57" />
    </edge>
    <edge id=":203072202_1" function="internal">
        <lane id=":203072202_1_0" index="0" disallow="tram rail_urban rail rail_electric rail_fast ship" speed="3.65" length="4.67" shape="257.25,248.45 255.99,249.14 255.09,249.12 254.57,248.39 254.42,246.96" />
    </edge>
    <edge id=":203072202_2" function="internal">
        <lane id=":203072202_2_0" index="0" disallow="tram rail_urban rail rail_electric rail_fast ship" speed="6.68" length="9.52" shape="246.57,249.87 248.92,250.65 251.02,250.42 252.85,249.19 254.42,246.96" />
    </edge>
    <edge id=":203072202_3" function="internal">
        <lane id=":203072202_3_0" index="0" disallow="tram rail_urban rail rail_electric rail_fast ship" speed="13.89" length="14.66" shape="246.57,249.87 260.08,255.57" />
    </edge>
    <edge id=":2514101178_0" function="internal">
        <lane id=":2514101178_0_0" index="0" disallow="tram rail_urban rail rail_electric rail_fast ship" speed="3.65" length="4.67" shape="658.67,267.89 659.65,268.95 659.84,269.83 659.26,270.51 657.90,270.99" />
    </edge>
    <edge id=":2741378433_0" function="internal">
        <lane id=":2741378433_0_0" index="0" disallow="tram rail_urban rail rail_electric rail_fast ship" speed="3.65" length="4.67" shape="297.03,74.96 298.24,74.17 299.14,74.12 299.71,74.80 299.97,76.22" />
    </edge>
    <edge id=":6434526405_0" function="internal">
        <lane id=":6434526405_0_0" index="0" disallow="tram rail_urban rail rail_electric rail_fast ship" speed="6.56" length="9.31" shape="120.04,81.66 117.50,80.94 115.39,81.18 113.69,82.35 112.40,84.48" />
    </edge>
    <edge id=":6434526405_1" function="internal">
        <lane id=":6434526405_1_0" index="0" disallow="tram rail_urban rail rail_electric rail_fast ship" speed="27.78" length="16.51" shape="120.04,81.66 104.87,75.20" />
        <lane id=":6434526405_1_1" index="1" disallow="tram rail_urban rail rail_electric rail_fast ship" speed="27.78" length="16.51" shape="121.31,78.72 106.10,72.25" />
    </edge>
    <edge id=":6434526405_3" function="internal">
        <lane id=":6434526405_3_0" index="0" disallow="tram rail_urban rail rail_electric rail_fast ship" speed="9.24" length="4.66" shape="121.31,78.72 117.35,76.27" />
    </edge>
    <edge id=":6434526405_4" function="internal">
        <lane id=":6434526405_4_0" index="0" disallow="tram rail_urban rail rail_electric rail_fast ship" speed="3.65" length="1.44" shape="121.31,78.72 120.53,77.51" />
    </edge>
    <edge id=":6434526405_18" function="internal">
        <lane id=":6434526405_18_0" index="0" disallow="tram rail_urban rail rail_electric rail_fast ship" speed="9.24" length="14.67" shape="117.35,76.27 116.86,75.97 114.39,72.40 113.89,68.04 115.35,62.87" />
    </edge>
    <edge id=":6434526405_19" function="internal">
        <lane id=":6434526405_19_0" index="0" disallow="tram rail_urban rail rail_electric rail_fast ship" speed="3.65" length="3.23" shape="120.53,77.51 120.48,76.62 121.16,76.04 122.58,75.79" />
    </edge>
    <edge id=":6434526405_5" function="internal">
        <lane id=":6434526405_5_0" index="0" disallow="tram rail_urban rail rail_electric rail_fast ship" speed="6.89" length="10.09" shape="121.71,64.18 120.83,67.18 120.89,69.63 121.90,71.52 123.86,72.85" />
    </edge>
    <edge id=":6434526405_6" function="internal">
        <lane id=":6434526405_6_0" index="0" disallow="tram rail_urban rail rail_electric rail_fast ship" speed="18.05" length="22.33" shape="121.71,64.18 112.40,84.48" />
    </edge>
    <edge id=":6434526405_7" function="internal">
        <lane id=":6434526405_7_0" index="0" disallow="tram rail_urban rail rail_electric rail_fast ship" speed="9.39" length="10.64" shape="121.71,64.18 118.81,69.35 115.24,72.42" />
    </edge>
    <edge id=":6434526405_8" function="internal">
        <lane id=":6434526405_8_0" index="0" disallow="tram rail_urban rail rail_electric rail_fast ship" speed="4.76" length="6.21" shape="121.71,64.18 119.63,66.23 117.87,66.70 116.72,65.79" />
    </edge>
    <edge id=":6434526405_20" function="internal">
        <lane id=":6434526405_20_0" index="0" disallow="tram rail_urban rail rail_electric rail_fast ship" speed="9.39" length="9.38" shape="115.24,72.42 111.01,73.39 106.10,72.25" />
    </edge>
    <edge id=":6434526405_21" function="internal">
        <lane id=":6434526405_21_0" index="0" disallow="tram rail_urban rail rail_electric rail_fast ship" speed="4.76" length="3.26" shape="116.72,65.79 116.45,65.58 115.35,62.87" />
    </edge>
    <edge id=":6434526405_9" function="internal">
        <lane id=":6434526405_9_0" index="0" disallow="tram rail_urban rail rail_electric rail_fast ship" speed="6.42" length="8.63" shape="108.57,66.35 110.66,66.82 112.48,66.40 114.05,65.09 115.35,62.87" />
    </edge>
    <edge id=":6434526405_10" function="internal">
        <lane id=":6434526405_10_0" index="0" disallow="tram rail_urban rail rail_electric rail_fast ship" speed="27.78" length="16.59" shape="108.57,66.35 123.86,72.85" />
        <lane id=":6434526405_10_1" index="1" disallow="tram rail_urban rail rail_electric rail_fast ship" speed="27.78" length="16.59" shape="107.34,69.30 122.58,75.79" />
    </edge>
    <edge id=":6434526405_12" function="internal">
        <lane id=":6434526405_12_0" index="0" disallow="tram rail_urban rail rail_electric rail_fast ship" speed="9.01" length="4.48" shape="107.34,69.30 111.14,71.68" />
    </edge>
    <edge id=":6434526405_13" function="internal">
        <lane id=":6434526405_13_0" index="0" disallow="tram rail_urban rail rail_electric rail_fast ship" speed="3.65" length="1.44" shape="107.34,69.30 108.14,70.50" />
    </edge>
    <edge id=":6434526405_22" function="internal">
        <lane id=":6434526405_22_0" index="0" disallow="tram rail_urban rail rail_electric rail_fast ship" speed="9.01" length="13.73" shape="111.14,71.68 111.28,71.77 113.44,75.12 113.82,79.36 112.40,84.48" />
    </edge>
    <edge id=":6434526405_23" function="internal">
        <lane id=":6434526405_23_0" index="0" disallow="tram rail_urban rail rail_electric rail_fast ship" speed="3.65" length="3.23" shape="108.14,70.50 108.20,71.39 107.52,71.98 106.10,72.25" />
    </edge>
    <edge id=":6434526405_14" function="internal">
        <lane id=":6434526405_14_0" index="0" disallow="tram rail_urban rail rail_electric rail_fast ship" speed="6.98" length="10.51" shape="109.45,83.25 109.97,80.79 109.39,78.63 107.68,76.76 104.87,75.20" />
    </edge>
    <edge id=":6434526405_15" function="internal">
        <lane id=":6434526405_15_0" index="0" disallow="tram rail_urban rail rail_electric rail_fast ship" speed="18.05" length="21.23" shape="109.45,83.25 110.89,78.76 112.36,73.05 113.85,67.33 115.35,62.87" />
    </edge>
    <edge id=":6434526405_16" function="internal">
        <lane id=":6434526405_16_0" index="0" disallow="tram rail_urban rail rail_electric rail_fast ship" speed="8.71" length="6.00" shape="109.45,83.25 112.00,78.60 112.51,78.14" />
    </edge>
    <edge id=":6434526405_17" function="internal">
        <lane id=":6434526405_17_0" index="0" disallow="tram rail_urban rail rail_electric rail_fast ship" speed="3.65" length="1.44" shape="109.45,83.25 110.65,82.45" />
    </edge>
    <edge id=":6434526405_24" function="internal">
        <lane id=":6434526405_24_0" index="0" disallow="tram rail_urban rail rail_electric rail_fast ship" speed="8.71" length="11.21" shape="112.51,78.14 115.04,75.81 118.57,74.87 122.58,75.79" />
    </edge>
    <edge id=":6434526405_25" function="internal">
        <lane id=":6434526405_25_0" index="0" disallow="tram rail_urban rail rail_electric rail_fast ship" speed="3.65" length="3.23" shape="110.65,82.45 111.54,82.39 112.12,83.06 112.40,84.48" />
    </edge>
    <edge id=":8912957660_0" function="internal">
        <lane id=":8912957660_0_0" index="0" disallow="tram rail_urban rail rail_electric rail_fast ship" speed="3.65" length="4.67" shape="-0.62,27.58 -1.42,26.37 -1.48,25.48 -0.80,24.90 0.62,24.62" />
    </edge>
    <edge id=":cluster_202925707_202925710_0" function="internal">
        <lane id=":cluster_202925707_202925710_0_0" index="0" disallow="tram rail_urban rail rail_electric rail_fast ship" speed="27.78" length="29.23" shape="381.34,190.10 354.26,179.27" />
        <lane id=":cluster_202925707_202925710_0_1" index="1" disallow="tram rail_urban rail rail_electric rail_fast ship" speed="27.78" length="29.23" shape="382.61,187.16 355.41,176.28" />
    </edge>
    <edge id=":cluster_202925707_202925710_2" function="internal">