<?xml version="1.0" encoding="UTF-8"?>

<!-- generated on 2024-04-20 20:49:11 by Eclipse SUMO duarouter Version 1.19.0
<configuration xmlns:xsi="http://www.w3.org/2001/XMLSchema-instance" xsi:noNamespaceSchemaLocation="http://sumo.dlr.de/xsd/duarouterConfiguration.xsd">

    <input>
        <net-file value="poggers3.net.xml"/>
        <route-files value="poggers3.trips.xml"/>
    </input>

    <output>
        <output-file value="routefile.rou.xml"/>
    </output>

    <report>
        <ignore-errors value="true"/>
    </report>

</configuration>
-->

<routes xmlns:xsi="http://www.w3.org/2001/XMLSchema-instance" xsi:noNamespaceSchemaLocation="http://sumo.dlr.de/xsd/routes_file.xsd">
    <vehicle id="0" depart="0.00">
        <route edges="187697932 -19527973#0 -830696993#3 -830696993#1 -830696993#0 -49828222 49828222 -830696983 -1166042012"/>
    </vehicle>
    <vehicle id="1" depart="1.00">
        <route edges="-826542444 -830696993#3 -830696993#1 -830696993#0 -49828222"/>
    </vehicle>
    <vehicle id="2" depart="2.00">
        <route edges="19552780 19527973#0 19527973#1"/>
    </vehicle>
    <vehicle id="3" depart="3.00">
        <route edges="830696983 830696993#0 830696993#1 830696993#3 19527973#0 -19527973#0"/>
    </vehicle>
    <vehicle id="4" depart="4.00">
        <route edges="-830696993#1 -830696993#0 -49828222 49828222 -830696983 -1166042012"/>
    </vehicle>
    <vehicle id="5" depart="5.00">
        <route edges="-19552780 19552780 826542444 -1256973143 1256973142#0"/>
    </vehicle>
    <vehicle id="6" depart="6.00">
        <route edges="-1166042012 1166042012 830696983 830696993#0 830696993#1 -203195317"/>
    </vehicle>
    <vehicle id="7" depart="7.00">
        <route edges="187697932 -19527973#0 -19552780 1256973142#1"/>
    </vehicle>
    <vehicle id="8" depart="8.00">
        <route edges="-19552780 19552780 -830696993#3 -203195317 19543664#0 187697932"/>
    </vehicle>
    <vehicle id="9" depart="9.00">
        <route edges="686489223 -826542444 -830696993#3 -830696993#1 -830696993#0 -49828222 49828222 -830696983 -1166042012"/>
    </vehicle>
    <!--Vehicle we wanna watch for the Cumberland West to East Route-->
    <vehicle id="10" depart="10.00">
        <route edges="-827216456 -826542444 -830696993#3 -830696993#1 -830696993#0 -49828222"/>
    </vehicle>
</routes>
